examples/dss/constant current/2busYy0/2BusYy0_VLN_Node.Txt

LINE-GROUND and LINE-LINE VOLTAGES BY BUS & NODE

Bus       Node    VLN (kV)   Angle      pu     Base kV    Node-Node   VLL (kV)  Angle      pu

SOURCEBUS 1       7.1994 /_    0.0   0.99998    12.470        1-2      12.47 /_   30.0   0.99998
   -      2       7.1994 /_ -120.0   0.99998    12.470        2-3      12.47 /_  -90.0   0.99998
   -      3       7.1994 /_  120.0   0.99998    12.470        3-1      12.47 /_  150.0   0.99998
N3 ...... 1       2.3143 /_   -2.8    0.9636     4.160        1-2     4.0086 /_   27.2    0.9636
   -      2       2.3143 /_ -122.8    0.9636     4.160        2-3     4.0086 /_  -92.8    0.9636
   -      3       2.3143 /_  117.2    0.9636     4.160        3-1     4.0086 /_  147.2    0.9636
